<?xml version="1.0" encoding="UTF-8"?>

<!-- generated on 2026-07-09T21:45:45.572647+09:00 by Eclipse SUMO netconvert 1.27.1
<netconvertConfiguration xmlns:xsi="http://www.w3.org/2001/XMLSchema-instance" xsi:noNamespaceSchemaLocation="http://sumo.dlr.de/xsd/netconvertConfiguration.xsd">

    <input>
        <sumo-net-file value="/tmp/patched.net.xml"/>
    </input>

    <output>
        <output-file value="/tmp/fixed.net.xml"/>
        <output.street-names value="true"/>
    </output>

    <processing>
        <geometry.min-radius.fix.railways value="false"/>
        <geometry.avoid-overlap value="false"/>
        <geometry.max-grade.fix value="false"/>
        <offset.disable-normalization value="true"/>
    </processing>

    <junctions>
        <no-turnarounds value="true"/>
        <junctions.corner-detail value="6"/>
    </junctions>

</netconvertConfiguration>
-->

<net version="1.20" junctionCornerDetail="6" limitTurnSpeed="5.50" avoidOverlap="0" xmlns:xsi="http://www.w3.org/2001/XMLSchema-instance" xsi:noNamespaceSchemaLocation="http://sumo.dlr.de/xsd/net_file.xsd">

    <location netOffset="-88.75,-83.64" convBoundary="-30.16,2.10,155.51,161.16" origBoundary="88.75,83.64,237.03,244.80" projParameter="!"/>

    <edge id=":J_0" function="internal">
        <lane id=":J_0_0" index="0" speed="15.60" length="30.06" width="3.20" shape="66.06,85.47 58.54,80.74 53.81,76.83 49.11,72.89 41.65,68.04"/>
        <lane id=":J_0_1" index="1" speed="15.60" length="30.06" width="3.20" shape="67.65,82.69 60.13,77.96 55.40,74.05 50.70,70.11 43.24,65.26"/>
        <lane id=":J_0_2" index="2" speed="15.60" length="30.06" width="3.20" shape="69.24,79.92 61.72,75.18 56.99,71.28 52.29,67.33 44.83,62.48"/>
    </edge>
    <edge id=":J_3" function="internal">
        <lane id=":J_3_0" index="0" speed="13.43" length="17.92" width="3.20" shape="70.83,77.14 63.29,71.40 58.95,64.29 58.93,64.18"/>
        <lane id=":J_3_1" index="1" speed="12.59" length="6.57" width="3.20" shape="72.42,74.36 67.20,70.38"/>
    </edge>
    <edge id=":J_19" function="internal">
        <lane id=":J_19_0" index="0" speed="13.43" length="18.52" width="3.20" shape="58.93,64.18 57.81,55.81 59.88,45.95"/>
        <lane id=":J_19_1" index="0" speed="12.59" length="25.36" width="3.20" shape="67.20,70.38 65.84,69.34 62.06,63.11 61.08,55.66 62.90,47.00"/>
    </edge>
    <edge id=":J_5" function="internal">
        <lane id=":J_5_0" index="0" speed="9.21" length="16.43" width="3.20" shape="74.99,51.20 73.62,56.46 73.51,60.71 74.67,63.96 77.09,66.20"/>
    </edge>
    <edge id=":J_6" function="internal">
        <lane id=":J_6_0" index="0" speed="15.60" length="40.23" width="3.20" shape="71.97,50.15 58.98,88.21"/>
        <lane id=":J_6_1" index="1" speed="15.60" length="40.23" width="3.20" shape="68.94,49.10 55.94,87.19"/>
    </edge>
    <edge id=":J_8" function="internal">
        <lane id=":J_8_0" index="0" speed="10.82" length="9.55" width="3.20" shape="65.92,48.05 62.23,56.86"/>
    </edge>
    <edge id=":J_20" function="internal">
        <lane id=":J_20_0" index="0" speed="10.82" length="21.05" width="3.20" shape="62.23,56.86 57.82,62.70 52.18,64.81 44.83,62.48"/>
    </edge>
    <edge id=":J_9" function="internal">
        <lane id=":J_9_0" index="0" speed="6.14" length="9.06" width="3.20" shape="52.79,48.60 55.16,49.54 57.13,49.41 58.70,48.21 59.88,45.95"/>
    </edge>
    <edge id=":J_10" function="internal">
        <lane id=":J_10_0" index="0" speed="15.60" length="30.06" width="3.20" shape="52.79,48.60 60.24,53.45 64.94,57.41 69.63,61.36 77.09,66.20"/>
        <lane id=":J_10_1" index="1" speed="15.60" length="30.06" width="3.20" shape="51.19,51.38 58.65,56.23 63.35,60.18 68.04,64.14 75.50,68.98"/>
        <lane id=":J_10_2" index="2" speed="15.60" length="30.06" width="3.20" shape="49.60,54.15 57.06,59.00 61.76,62.96 66.45,66.91 73.91,71.76"/>
    </edge>
    <edge id=":J_13" function="internal">
        <lane id=":J_13_0" index="0" speed="13.57" length="17.91" width="3.20" shape="48.01,56.93 55.45,62.75 59.76,69.91 59.77,70.02"/>
        <lane id=":J_13_1" index="1" speed="12.73" length="7.86" width="3.20" shape="46.42,59.71 52.60,64.56"/>
    </edge>
    <edge id=":J_21" function="internal">
        <lane id=":J_21_0" index="0" speed="13.57" length="18.46" width="3.20" shape="59.77,70.02 60.93,78.39 58.98,88.21"/>
        <lane id=":J_21_1" index="0" speed="12.73" length="24.06" width="3.20" shape="52.60,64.56 52.91,64.80 56.66,71.08 57.67,78.55 55.94,87.19"/>
    </edge>
    <edge id=":J_15" function="internal">
        <lane id=":J_15_0" index="0" speed="9.27" length="16.49" width="3.20" shape="43.81,83.12 45.14,77.82 45.22,73.54 44.06,70.28 41.65,68.04"/>
    </edge>
    <edge id=":J_16" function="internal">
        <lane id=":J_16_0" index="0" speed="15.60" length="40.33" width="3.20" shape="46.84,84.13 59.88,45.95"/>
        <lane id=":J_16_1" index="1" speed="15.60" length="40.33" width="3.20" shape="49.88,85.15 62.90,47.00"/>
    </edge>
    <edge id=":J_18" function="internal">
        <lane id=":J_18_0" index="0" speed="10.78" length="9.92" width="3.20" shape="52.91,86.17 56.50,77.35 56.74,77.04"/>
    </edge>
    <edge id=":J_22" function="internal">
        <lane id=":J_22_0" index="0" speed="10.78" length="20.69" width="3.20" shape="56.74,77.04 60.86,71.51 66.50,69.40 73.91,71.76"/>
    </edge>
    <edge id=":J11_0" function="internal">
        <lane id=":J11_0_0" index="0" speed="6.83" length="5.42" shape="75.21,94.10 73.93,93.55 72.63,93.34 71.33,93.46 70.01,93.93"/>
    </edge>
    <edge id=":J11_1" function="internal">
        <lane id=":J11_1_0" index="0" speed="15.60" length="6.03" width="3.20" shape="76.78,91.31 71.53,88.49"/>
        <lane id=":J11_1_1" index="1" speed="15.60" length="6.03" width="3.20" shape="78.36,88.53 73.08,85.69"/>
        <lane id=":J11_1_2" index="2" speed="15.60" length="6.03" width="3.20" shape="79.93,85.74 74.62,82.89"/>
        <lane id=":J11_1_3" index="3" speed="15.60" length="6.03" width="3.20" shape="81.51,82.96 76.17,80.09"/>
        <lane id=":J11_1_4" index="4" speed="15.60" length="6.03" width="3.20" shape="83.08,80.17 77.72,77.29"/>
    </edge>
    <edge id=":J12_0" function="internal">
        <lane id=":J12_0_0" index="0" speed="15.60" length="7.89" width="3.20" shape="138.01,126.16 131.56,122.27"/>
        <lane id=":J12_0_1" index="1" speed="15.60" length="7.89" width="3.20" shape="139.74,123.47 133.14,119.49"/>
        <lane id=":J12_0_2" index="2" speed="15.60" length="7.89" width="3.20" shape="141.47,120.78 134.71,116.70"/>
        <lane id=":J12_0_3" index="3" speed="15.60" length="7.89" width="3.20" shape="143.20,118.08 136.29,113.92"/>
        <lane id=":J12_0_4" index="4" speed="15.60" length="7.89" width="3.20" shape="144.92,115.39 137.86,111.13"/>
    </edge>
    <edge id=":J5_0" function="internal">
        <lane id=":J5_0_0" index="0" speed="9.03" length="7.48" width="3.20" shape="59.47,99.05 57.27,100.23 55.58,101.40 54.42,102.55 53.79,103.67"/>
    </edge>
    <edge id=":J5_1" function="internal">
        <lane id=":J5_1_0" index="0" speed="15.60" length="7.84" width="3.20" shape="56.28,96.24 53.79,103.67"/>
        <lane id=":J5_1_1" index="1" speed="15.60" length="7.84" width="3.20" shape="53.25,95.22 50.75,102.65"/>
    </edge>
    <edge id=":nNleft_0" function="internal">
        <lane id=":nNleft_0_0" index="0" speed="15.60" length="8.81" width="3.20" shape="39.66,105.53 39.97,103.03 39.42,101.22 38.87,99.41 39.18,96.92"/>
        <lane id=":nNleft_0_1" index="1" speed="15.60" length="8.81" width="3.20" shape="42.70,106.54 43.01,104.05 42.45,102.24 41.90,100.43 42.21,97.94"/>
        <lane id=":nNleft_0_2" index="2" speed="15.60" length="8.81" width="3.20" shape="45.73,107.56 46.04,105.07 45.49,103.26 44.93,101.45 45.24,98.96"/>
    </edge>

    <edge id="E1" from="J11" to="J5" priority="-1">
        <lane id="E1_0" index="0" speed="13.89" length="11.71" shape="70.01,93.93 59.47,99.05"/>
    </edge>
    <edge id="NE_in" from="nNE" to="J12" name="Peachtree Rd NE" priority="12" spreadType="roadCenter">
        <lane id="NE_in_0" index="0" speed="15.60" length="11.42" width="3.20" shape="147.73,132.40 138.01,126.16"/>
        <lane id="NE_in_1" index="1" speed="15.60" length="11.42" width="3.20" shape="149.46,129.71 139.74,123.47"/>
        <lane id="NE_in_2" index="2" speed="15.60" length="11.42" width="3.20" shape="151.06,126.93 141.47,120.78"/>
        <lane id="NE_in_3" index="3" speed="15.60" length="11.42" width="3.20" shape="152.74,124.20 143.20,118.08"/>
        <lane id="NE_in_4" index="4" speed="15.60" length="11.42" width="3.20" shape="154.42,121.48 144.92,115.39"/>
    </edge>
    <edge id="NE_in.15" from="J12" to="J11" name="Peachtree Rd NE" priority="12" spreadType="roadCenter">
        <lane id="NE_in.15_0" index="0" speed="15.60" length="62.92" width="3.20" shape="129.99,125.06 75.21,94.10"/>
        <lane id="NE_in.15_1" index="1" speed="15.60" length="62.92" width="3.20" shape="131.56,122.27 76.78,91.31"/>
        <lane id="NE_in.15_2" index="2" speed="15.60" length="62.92" width="3.20" shape="133.14,119.49 78.36,88.53"/>
        <lane id="NE_in.15_3" index="3" speed="15.60" length="62.92" width="3.20" shape="134.71,116.70 79.93,85.74"/>
        <lane id="NE_in.15_4" index="4" speed="15.60" length="62.92" width="3.20" shape="136.29,113.92 81.51,82.96"/>
        <lane id="NE_in.15_5" index="5" speed="15.60" length="62.92" width="3.20" shape="137.86,111.13 83.08,80.17"/>
    </edge>
    <edge id="NE_in.79" from="J11" to="J" name="Peachtree Rd NE" priority="12" spreadType="roadCenter">
        <lane id="NE_in.79_0" index="0" speed="15.60" length="6.15" width="3.20" shape="71.53,88.49 66.06,85.47"/>
        <lane id="NE_in.79_1" index="1" speed="15.60" length="6.15" width="3.20" shape="73.08,85.69 67.65,82.69"/>
        <lane id="NE_in.79_2" index="2" speed="15.60" length="6.15" width="3.20" shape="74.62,82.89 69.24,79.92"/>
        <lane id="NE_in.79_3" index="3" speed="15.60" length="6.15" width="3.20" shape="76.17,80.09 70.83,77.14"/>
        <lane id="NE_in.79_4" index="4" speed="15.60" length="6.15" width="3.20" shape="77.72,77.29 72.42,74.36"/>
    </edge>
    <edge id="NE_out" from="J" to="nNE" name="Peachtree Rd NE" priority="12" spreadType="roadCenter">
        <lane id="NE_out_0" index="0" speed="15.60" length="94.79" width="3.20" shape="77.09,66.20 159.48,113.34"/>
        <lane id="NE_out_1" index="1" speed="15.60" length="94.79" width="3.20" shape="75.50,68.98 157.76,116.04"/>
        <lane id="NE_out_2" index="2" speed="15.60" length="94.79" width="3.20" shape="73.91,71.76 156.08,118.77"/>
    </edge>
    <edge id="N_far" from="nN" to="nNleft" name="Piedmont Rd NE" priority="10" spreadType="roadCenter" length="30.00">
        <lane id="N_far_0" index="0" speed="15.60" length="30.00" width="3.20" shape="21.84,158.61 39.66,105.53"/>
        <lane id="N_far_1" index="1" speed="15.60" length="30.00" width="3.20" shape="24.87,159.63 42.70,106.54"/>
        <lane id="N_far_2" index="2" speed="15.60" length="30.00" width="3.20" shape="27.90,160.65 45.73,107.56"/>
    </edge>
    <edge id="N_near" from="nNleft" to="J" name="Piedmont Rd NE" priority="10" spreadType="roadCenter">
        <lane id="N_near_0" index="0" speed="15.60" length="14.56" width="3.20" shape="39.18,96.92 43.81,83.12"/>
        <lane id="N_near_1" index="1" speed="15.60" length="14.56" width="3.20" shape="42.21,97.94 46.84,84.13"/>
        <lane id="N_near_2" index="2" speed="15.60" length="14.56" width="3.20" shape="45.24,98.96 49.88,85.15"/>
        <lane id="N_near_3" index="3" speed="15.60" length="14.56" width="3.20" shape="48.28,99.98 52.91,86.17"/>
    </edge>
    <edge id="N_out" from="J" to="J5" name="Piedmont Rd NE" priority="10" spreadType="roadCenter">
        <lane id="N_out_0" index="0" speed="15.60" length="8.47" width="3.20" shape="58.98,88.21 56.28,96.24"/>
        <lane id="N_out_1" index="1" speed="15.60" length="8.47" width="3.20" shape="55.94,87.19 53.25,95.22"/>
    </edge>
    <edge id="N_out.37" from="J5" to="nN" name="Piedmont Rd NE" priority="10" spreadType="roadCenter">
        <lane id="N_out.37_0" index="0" speed="15.60" length="62.26" width="3.20" shape="53.79,103.67 33.97,162.69"/>
        <lane id="N_out.37_1" index="1" speed="15.60" length="62.26" width="3.20" shape="50.75,102.65 30.94,161.67"/>
    </edge>
    <edge id="SW_in" from="nSW" to="J" name="Peachtree Rd NE" priority="12" spreadType="roadCenter">
        <lane id="SW_in_0" index="0" speed="15.60" length="89.18" width="3.20" shape="-24.59,4.26 52.79,48.60"/>
        <lane id="SW_in_1" index="1" speed="15.60" length="89.18" width="3.20" shape="-26.18,7.04 51.19,51.38"/>
        <lane id="SW_in_2" index="2" speed="15.60" length="89.18" width="3.20" shape="-27.77,9.82 49.60,54.15"/>
        <lane id="SW_in_3" index="3" speed="15.60" length="89.18" width="3.20" shape="-29.36,12.59 48.01,56.93"/>
        <lane id="SW_in_4" index="4" speed="15.60" length="89.18" width="3.20" shape="-30.96,15.37 46.42,59.71"/>
    </edge>
    <edge id="SW_out" from="J" to="nSW" name="Peachtree Rd NE" priority="12" spreadType="roadCenter">
        <lane id="SW_out_0" index="0" speed="15.60" length="89.18" width="3.20" shape="41.65,68.04 -35.73,23.70"/>
        <lane id="SW_out_1" index="1" speed="15.60" length="89.18" width="3.20" shape="43.24,65.26 -34.14,20.92"/>
        <lane id="SW_out_2" index="2" speed="15.60" length="89.18" width="3.20" shape="44.83,62.48 -32.55,18.14"/>
    </edge>
    <edge id="S_in" from="nS" to="J" name="Piedmont Rd NE" priority="10" spreadType="roadCenter">
        <lane id="S_in_0" index="0" speed="15.60" length="49.20" width="3.20" shape="91.15,4.73 74.99,51.20"/>
        <lane id="S_in_1" index="1" speed="15.60" length="49.20" width="3.20" shape="88.12,3.68 71.97,50.15"/>
        <lane id="S_in_2" index="2" speed="15.60" length="49.20" width="3.20" shape="85.10,2.63 68.94,49.10"/>
        <lane id="S_in_3" index="3" speed="15.60" length="49.20" width="3.20" shape="82.08,1.57 65.92,48.05"/>
    </edge>
    <edge id="S_out" from="J" to="nS" name="Piedmont Rd NE" priority="10" spreadType="roadCenter">
        <lane id="S_out_0" index="0" speed="15.60" length="49.20" width="3.20" shape="59.88,45.95 76.03,-0.53"/>
        <lane id="S_out_1" index="1" speed="15.60" length="49.20" width="3.20" shape="62.90,47.00 79.06,0.52"/>
    </edge>

    <tlLogic id="J" type="actuated" programID="0" offset="0">
        <phase duration="33" state="GGGggrrrrGGGGggrrrr" minDur="6" maxDur="50"/>
        <phase duration="3"  state="yyyggrrrryyyyggrrrr"/>
        <phase duration="6"  state="rrrGGrrrrrrrrGGrrrr" minDur="6" maxDur="50"/>
        <phase duration="3"  state="rrryyrrrrrrrryyrrrr"/>
        <phase duration="33" state="rrrrrGGGgrrrrrrGGGg" minDur="6" maxDur="50"/>
        <phase duration="3"  state="rrrrryyygrrrrrryyyg"/>
        <phase duration="6"  state="rrrrrrrrGrrrrrrrrrG" minDur="6" maxDur="50"/>
        <phase duration="3"  state="rrrrrrrryrrrrrrrrry"/>
    </tlLogic>

    <junction id="J" type="traffic_light" x="61.25" y="66.36" incLanes="NE_in.79_0 NE_in.79_1 NE_in.79_2 NE_in.79_3 NE_in.79_4 S_in_0 S_in_1 S_in_2 S_in_3 SW_in_0 SW_in_1 SW_in_2 SW_in_3 SW_in_4 N_near_0 N_near_1 N_near_2 N_near_3" intLanes=":J_0_0 :J_0_1 :J_0_2 :J_19_0 :J_19_1 :J_5_0 :J_6_0 :J_6_1 :J_20_0 :J_9_0 :J_10_0 :J_10_1 :J_10_2 :J_21_0 :J_21_1 :J_15_0 :J_16_0 :J_16_1 :J_22_0" shape="65.27,86.86 77.88,64.81 75.75,62.59 75.20,61.02 75.01,59.16 75.16,56.98 75.66,54.51 76.50,51.73 58.37,45.42 57.44,47.11 56.84,47.60 56.16,47.86 55.39,47.88 54.53,47.66 53.58,47.21 40.85,69.42 42.98,71.65 43.53,73.23 43.73,75.11 43.60,77.30 43.12,79.80 42.29,82.61 60.49,88.72 61.40,87.02 62.00,86.52 62.68,86.25 63.45,86.22 64.31,86.42">
        <request index="0"  response="1000000000000000000" foes="1111110000111000000" cont="0"/>
        <request index="1"  response="1000000000000000000" foes="1111110000111000000" cont="0"/>
        <request index="2"  response="1000000000100000000" foes="1111110000111000000" cont="0"/>
        <request index="3"  response="1000011111100000000" foes="1110011111111000000" cont="1"/>
        <request index="4"  response="1000001111100000000" foes="1110001111111000000" cont="1"/>
        <request index="5"  response="0000001110000000000" foes="0000001110000000000" cont="0"/>
        <request index="6"  response="0000111110000011111" foes="1000111110000011111" cont="0"/>
        <request index="7"  response="0000111110000011111" foes="1000111110000011111" cont="0"/>
        <request index="8"  response="0110111110000011111" foes="0110111110000011111" cont="1"/>
        <request index="9"  response="0000000000000000000" foes="0110000000000011000" cont="0"/>
        <request index="10" response="0000000000100000000" foes="1110000000111111000" cont="0"/>
        <request index="11" response="0000000000100000000" foes="1110000000111111000" cont="0"/>
        <request index="12" response="1000000000100000000" foes="1110000000111111000" cont="0"/>
        <request index="13" response="1000000000100000111" foes="1110000000111001111" cont="1"/>
        <request index="14" response="1000000000100000111" foes="1110000000111000111" cont="1"/>
        <request index="15" response="0000000000000000111" foes="0000000000000000111" cont="0"/>
        <request index="16" response="0000111111000011111" foes="0000111111100011111" cont="0"/>
        <request index="17" response="0000111111000011111" foes="0000111111100011111" cont="0"/>
        <request index="18" response="0000111110011011111" foes="0000111110011011111" cont="1"/>
    </junction>
    <junction id="J11" type="priority" x="90.21" y="82.36" incLanes="NE_in.15_0 NE_in.15_1 NE_in.15_2 NE_in.15_3 NE_in.15_4 NE_in.15_5" intLanes=":J11_0_0 :J11_1_0 :J11_1_1 :J11_1_2 :J11_1_3 :J11_1_4" shape="74.42,95.49 83.87,78.78 78.49,75.89 70.75,89.89 71.39,90.52 71.39,90.87 71.18,91.24 70.77,91.63 70.14,92.05 69.31,92.50 70.71,95.37 71.78,95.01 72.32,94.95 72.85,94.96 73.37,95.06 73.90,95.24">
        <request index="0" response="000000" foes="000000" cont="0"/>
        <request index="1" response="000000" foes="000000" cont="0"/>
        <request index="2" response="000000" foes="000000" cont="0"/>
        <request index="3" response="000000" foes="000000" cont="0"/>
        <request index="4" response="000000" foes="000000" cont="0"/>
        <request index="5" response="000000" foes="000000" cont="0"/>
    </junction>
    <junction id="J12" type="priority" x="142.26" y="111.78" incLanes="NE_in_0 NE_in_1 NE_in_2 NE_in_3 NE_in_4" intLanes=":J12_0_0 :J12_0_1 :J12_0_2 :J12_0_3 :J12_0_4" shape="137.15,127.51 145.79,114.04 138.65,109.74 129.20,126.45 137.12,127.58" customShape="1">
        <request index="0" response="00000" foes="00000" cont="0"/>
        <request index="1" response="00000" foes="00000" cont="0"/>
        <request index="2" response="00000" foes="00000" cont="0"/>
        <request index="3" response="00000" foes="00000" cont="0"/>
        <request index="4" response="00000" foes="00000" cont="0"/>
    </junction>
    <junction id="J5" type="priority" x="49.20" y="102.25" incLanes="E1_0 N_out_0 N_out_1" intLanes=":J5_0_0 :J5_1_0 :J5_1_1" shape="60.17,100.48 58.78,97.61 58.08,97.83 57.86,97.81 57.72,97.68 57.66,97.47 57.69,97.15 57.80,96.75 51.73,94.71 49.24,102.14 55.30,104.18 55.92,103.23 56.46,102.72 57.16,102.19 58.01,101.64 59.01,101.08">
        <request index="0" response="110" foes="110" cont="0"/>
        <request index="1" response="000" foes="001" cont="0"/>
        <request index="2" response="000" foes="001" cont="0"/>
    </junction>
    <junction id="nN" type="dead_end" x="29.42" y="161.16" incLanes="N_out.37_0 N_out.37_1" intLanes="" shape="29.42,161.16 35.49,163.20 29.42,161.16"/>
    <junction id="nNE" type="dead_end" x="155.51" y="120.28" incLanes="NE_out_0 NE_out_1 NE_out_2" intLanes="" shape="155.51,120.28 146.87,133.75 160.28,111.95"/>
    <junction id="nNleft" type="priority" x="48.52" y="104.28" incLanes="N_far_0 N_far_1 N_far_2" intLanes=":nNleft_0_0 :nNleft_0_1 :nNleft_0_2" shape="49.79,100.49 37.66,96.41 38.15,105.02 47.25,108.07" customShape="1">
        <request index="0" response="000" foes="000" cont="0"/>
        <request index="1" response="000" foes="000" cont="0"/>
        <request index="2" response="000" foes="000" cont="0"/>
    </junction>
    <junction id="nS" type="dead_end" x="83.59" y="2.10" incLanes="S_out_0 S_out_1" intLanes="" shape="80.57,1.05 74.52,-1.05 80.57,1.05"/>
    <junction id="nSW" type="dead_end" x="-30.16" y="13.98" incLanes="SW_out_0 SW_out_1 SW_out_2" intLanes="" shape="-31.75,16.76 -36.52,25.09 -31.75,16.76"/>

    <junction id=":J_19_0" type="internal" x="58.93" y="64.18" incLanes=":J_3_0 SW_in_0 SW_in_1 SW_in_2" intLanes=":J_6_0 :J_6_1 :J_8_0 :J_9_0 :J_10_0 :J_10_1 :J_10_2 :J_16_0 :J_16_1 :J_18_0"/>
    <junction id=":J_19_1" type="internal" x="67.20" y="70.38" incLanes=":J_3_1 SW_in_0 SW_in_1 SW_in_2" intLanes=":J_6_0 :J_6_1 :J_8_0 :J_9_0 :J_10_0 :J_10_1 :J_10_2 :J_16_0 :J_16_1 :J_18_0"/>
    <junction id=":J_20_0" type="internal" x="62.23" y="56.86" incLanes=":J_8_0 N_near_0 N_near_1 N_near_2" intLanes=":J_0_0 :J_0_1 :J_0_2 :J_3_0 :J_3_1 :J_10_0 :J_10_1 :J_10_2 :J_13_0 :J_13_1 :J_15_0 :J_16_0 :J_16_1"/>
    <junction id=":J_21_0" type="internal" x="59.77" y="70.02" incLanes=":J_13_0 NE_in.79_0 NE_in.79_1 NE_in.79_2" intLanes=":J_0_0 :J_0_1 :J_0_2 :J_6_0 :J_6_1 :J_8_0 :J_16_0 :J_16_1 :J_18_0"/>
    <junction id=":J_21_1" type="internal" x="52.60" y="64.56" incLanes=":J_13_1 NE_in.79_0 NE_in.79_1 NE_in.79_2" intLanes=":J_0_0 :J_0_1 :J_0_2 :J_6_0 :J_6_1 :J_8_0 :J_16_0 :J_16_1 :J_18_0"/>
    <junction id=":J_22_0" type="internal" x="56.74" y="77.04" incLanes=":J_18_0 S_in_0 S_in_1 S_in_2" intLanes=":J_0_0 :J_0_1 :J_0_2 :J_3_0 :J_3_1 :J_5_0 :J_6_0 :J_6_1 :J_10_0 :J_10_1 :J_10_2 :J_13_0 :J_13_1"/>

    <connection from="E1" to="N_out.37" fromLane="0" toLane="0" via=":J5_0_0" dir="r" state="m"/>
    <connection from="NE_in" to="NE_in.15" fromLane="0" toLane="1" via=":J12_0_0" dir="s" state="M"/>
    <connection from="NE_in" to="NE_in.15" fromLane="1" toLane="2" via=":J12_0_1" dir="s" state="M"/>
    <connection from="NE_in" to="NE_in.15" fromLane="2" toLane="3" via=":J12_0_2" dir="s" state="M"/>
    <connection from="NE_in" to="NE_in.15" fromLane="3" toLane="4" via=":J12_0_3" dir="s" state="M"/>
    <connection from="NE_in" to="NE_in.15" fromLane="4" toLane="5" via=":J12_0_4" dir="s" state="M"/>
    <connection from="NE_in.15" to="E1" fromLane="0" toLane="0" via=":J11_0_0" dir="r" state="M"/>
    <connection from="NE_in.15" to="NE_in.79" fromLane="1" toLane="0" via=":J11_1_0" dir="s" state="M"/>
    <connection from="NE_in.15" to="NE_in.79" fromLane="2" toLane="1" via=":J11_1_1" dir="s" state="M"/>
    <connection from="NE_in.15" to="NE_in.79" fromLane="3" toLane="2" via=":J11_1_2" dir="s" state="M"/>
    <connection from="NE_in.15" to="NE_in.79" fromLane="4" toLane="3" via=":J11_1_3" dir="s" state="M"/>
    <connection from="NE_in.15" to="NE_in.79" fromLane="5" toLane="4" via=":J11_1_4" dir="s" state="M"/>
    <connection from="NE_in.79" to="SW_out" fromLane="0" toLane="0" via=":J_0_0" tl="J" linkIndex="0" dir="s" state="O"/>
    <connection from="NE_in.79" to="SW_out" fromLane="1" toLane="1" via=":J_0_1" tl="J" linkIndex="1" dir="s" state="O"/>
    <connection from="NE_in.79" to="SW_out" fromLane="2" toLane="2" via=":J_0_2" tl="J" linkIndex="2" dir="s" state="O"/>
    <connection from="NE_in.79" to="S_out" fromLane="3" toLane="0" via=":J_3_0" tl="J" linkIndex="3" dir="l" state="o"/>
    <connection from="NE_in.79" to="S_out" fromLane="4" toLane="1" via=":J_3_1" tl="J" linkIndex="4" dir="l" state="o"/>
    <connection from="N_far" to="N_near" fromLane="0" toLane="0" via=":nNleft_0_0" dir="s" state="M"/>
    <connection from="N_far" to="N_near" fromLane="1" toLane="1" via=":nNleft_0_1" dir="s" state="M"/>
    <connection from="N_far" to="N_near" fromLane="2" toLane="2" via=":nNleft_0_2" dir="s" state="M"/>
    <connection from="N_near" to="SW_out" fromLane="0" toLane="0" via=":J_15_0" tl="J" linkIndex="15" dir="r" state="o"/>
    <connection from="N_near" to="S_out" fromLane="1" toLane="0" via=":J_16_0" tl="J" linkIndex="16" dir="s" state="o"/>
    <connection from="N_near" to="S_out" fromLane="2" toLane="1" via=":J_16_1" tl="J" linkIndex="17" dir="s" state="o"/>
    <connection from="N_near" to="NE_out" fromLane="3" toLane="2" via=":J_18_0" tl="J" linkIndex="18" dir="l" state="o"/>
    <connection from="N_out" to="N_out.37" fromLane="0" toLane="0" via=":J5_1_0" dir="s" state="M"/>
    <connection from="N_out" to="N_out.37" fromLane="1" toLane="1" via=":J5_1_1" dir="s" state="M"/>
    <connection from="SW_in" to="S_out" fromLane="0" toLane="0" via=":J_9_0" tl="J" linkIndex="9" dir="r" state="O"/>
    <connection from="SW_in" to="NE_out" fromLane="0" toLane="0" via=":J_10_0" tl="J" linkIndex="10" dir="s" state="O"/>
    <connection from="SW_in" to="NE_out" fromLane="1" toLane="1" via=":J_10_1" tl="J" linkIndex="11" dir="s" state="O"/>
    <connection from="SW_in" to="NE_out" fromLane="2" toLane="2" via=":J_10_2" tl="J" linkIndex="12" dir="s" state="O"/>
    <connection from="SW_in" to="N_out" fromLane="3" toLane="0" via=":J_13_0" tl="J" linkIndex="13" dir="l" state="o"/>
    <connection from="SW_in" to="N_out" fromLane="4" toLane="1" via=":J_13_1" tl="J" linkIndex="14" dir="l" state="o"/>
    <connection from="S_in" to="NE_out" fromLane="0" toLane="0" via=":J_5_0" tl="J" linkIndex="5" dir="r" state="o"/>
    <connection from="S_in" to="N_out" fromLane="1" toLane="0" via=":J_6_0" tl="J" linkIndex="6" dir="s" state="o"/>
    <connection from="S_in" to="N_out" fromLane="2" toLane="1" via=":J_6_1" tl="J" linkIndex="7" dir="s" state="o"/>
    <connection from="S_in" to="SW_out" fromLane="3" toLane="2" via=":J_8_0" tl="J" linkIndex="8" dir="l" state="o"/>

    <connection from=":J_0" to="SW_out" fromLane="0" toLane="0" dir="s" state="M"/>
    <connection from=":J_0" to="SW_out" fromLane="1" toLane="1" dir="s" state="M"/>
    <connection from=":J_0" to="SW_out" fromLane="2" toLane="2" dir="s" state="M"/>
    <connection from=":J_3" to="S_out" fromLane="0" toLane="0" via=":J_19_0" dir="l" state="m"/>
    <connection from=":J_19" to="S_out" fromLane="0" toLane="0" dir="l" state="M"/>
    <connection from=":J_3" to="S_out" fromLane="1" toLane="1" via=":J_19_1" dir="l" state="m"/>
    <connection from=":J_19" to="S_out" fromLane="1" toLane="1" dir="l" state="M"/>
    <connection from=":J_5" to="NE_out" fromLane="0" toLane="0" dir="r" state="M"/>
    <connection from=":J_6" to="N_out" fromLane="0" toLane="0" dir="s" state="M"/>
    <connection from=":J_6" to="N_out" fromLane="1" toLane="1" dir="s" state="M"/>
    <connection from=":J_8" to="SW_out" fromLane="0" toLane="2" via=":J_20_0" dir="l" state="m"/>
    <connection from=":J_20" to="SW_out" fromLane="0" toLane="2" dir="l" state="M"/>
    <connection from=":J_9" to="S_out" fromLane="0" toLane="0" dir="r" state="M"/>
    <connection from=":J_10" to="NE_out" fromLane="0" toLane="0" dir="s" state="M"/>
    <connection from=":J_10" to="NE_out" fromLane="1" toLane="1" dir="s" state="M"/>
    <connection from=":J_10" to="NE_out" fromLane="2" toLane="2" dir="s" state="M"/>
    <connection from=":J_13" to="N_out" fromLane="0" toLane="0" via=":J_21_0" dir="l" state="m"/>
    <connection from=":J_21" to="N_out" fromLane="0" toLane="0" dir="l" state="M"/>
    <connection from=":J_13" to="N_out" fromLane="1" toLane="1" via=":J_21_1" dir="l" state="m"/>
    <connection from=":J_21" to="N_out" fromLane="1" toLane="1" dir="l" state="M"/>
    <connection from=":J_15" to="SW_out" fromLane="0" toLane="0" dir="r" state="M"/>
    <connection from=":J_16" to="S_out" fromLane="0" toLane="0" dir="s" state="M"/>
    <connection from=":J_16" to="S_out" fromLane="1" toLane="1" dir="s" state="M"/>
    <connection from=":J_18" to="NE_out" fromLane="0" toLane="2" via=":J_22_0" dir="l" state="m"/>
    <connection from=":J_22" to="NE_out" fromLane="0" toLane="2" dir="l" state="M"/>
    <connection from=":J11_0" to="E1" fromLane="0" toLane="0" dir="r" state="M"/>
    <connection from=":J11_1" to="NE_in.79" fromLane="0" toLane="0" dir="s" state="M"/>
    <connection from=":J11_1" to="NE_in.79" fromLane="1" toLane="1" dir="s" state="M"/>
    <connection from=":J11_1" to="NE_in.79" fromLane="2" toLane="2" dir="s" state="M"/>
    <connection from=":J11_1" to="NE_in.79" fromLane="3" toLane="3" dir="s" state="M"/>
    <connection from=":J11_1" to="NE_in.79" fromLane="4" toLane="4" dir="s" state="M"/>
    <connection from=":J12_0" to="NE_in.15" fromLane="0" toLane="1" dir="s" state="M"/>
    <connection from=":J12_0" to="NE_in.15" fromLane="1" toLane="2" dir="s" state="M"/>
    <connection from=":J12_0" to="NE_in.15" fromLane="2" toLane="3" dir="s" state="M"/>
    <connection from=":J12_0" to="NE_in.15" fromLane="3" toLane="4" dir="s" state="M"/>
    <connection from=":J12_0" to="NE_in.15" fromLane="4" toLane="5" dir="s" state="M"/>
    <connection from=":J5_0" to="N_out.37" fromLane="0" toLane="0" dir="r" state="M"/>
    <connection from=":J5_1" to="N_out.37" fromLane="0" toLane="0" dir="s" state="M"/>
    <connection from=":J5_1" to="N_out.37" fromLane="1" toLane="1" dir="s" state="M"/>
    <connection from=":nNleft_0" to="N_near" fromLane="0" toLane="0" dir="s" state="M"/>
    <connection from=":nNleft_0" to="N_near" fromLane="1" toLane="1" dir="s" state="M"/>
    <connection from=":nNleft_0" to="N_near" fromLane="2" toLane="2" dir="s" state="M"/>

</net>
