<?xml version='1.0' encoding='UTF-8'?>
<connections><connection from="NE_in" to="S_out" fromLane="3" toLane="0" /><connection from="NE_in" to="S_out" fromLane="4" toLane="1" /><connection from="NE_in" to="SW_out" fromLane="0" toLane="0" /><connection from="NE_in" to="SW_out" fromLane="1" toLane="1" /><connection from="NE_in" to="SW_out" fromLane="2" toLane="2" /><connection from="SW_in" to="N_out" fromLane="3" toLane="0" /><connection from="SW_in" to="N_out" fromLane="4" toLane="1" /><connection from="SW_in" to="NE_out" fromLane="1" toLane="1" /><connection from="SW_in" to="NE_out" fromLane="2" toLane="2" /><connection from="SW_in" to="NE_out" fromLane="0" toLane="0" /><connection from="SW_in" to="S_out" fromLane="0" toLane="0" /><connection from="N_far" to="N_near" fromLane="0" toLane="0" /><connection from="N_far" to="N_near" fromLane="1" toLane="1" /><connection from="N_far" to="N_near" fromLane="2" toLane="2" /></connections>