<?xml version='1.0' encoding='UTF-8'?>
<edges><edge from="nN" to="nNleft" numLanes="3" speed="15.6" priority="10" name="Piedmont Rd NE" spreadType="roadCenter" id="N_far" /><edge from="nNleft" to="J" numLanes="4" speed="15.6" priority="10" name="Piedmont Rd NE" spreadType="roadCenter" id="N_near" /><edge from="J" to="nN" numLanes="2" speed="15.6" priority="10" name="Piedmont Rd NE" spreadType="roadCenter" id="N_out" /><edge from="nS" to="J" numLanes="4" speed="15.6" priority="10" name="Piedmont Rd NE" spreadType="roadCenter" id="S_in" /><edge from="J" to="nS" numLanes="2" speed="15.6" priority="10" name="Piedmont Rd NE" spreadType="roadCenter" id="S_out" /><edge from="nNE" to="J" numLanes="5" speed="15.6" priority="12" name="Peachtree Rd NE" spreadType="roadCenter" id="NE_in" /><edge from="J" to="nNE" numLanes="3" speed="15.6" priority="12" name="Peachtree Rd NE" spreadType="roadCenter" id="NE_out" /><edge from="nSW" to="J" numLanes="5" speed="15.6" priority="12" name="Peachtree Rd NE" spreadType="roadCenter" id="SW_in" /><edge from="J" to="nSW" numLanes="3" speed="15.6" priority="12" name="Peachtree Rd NE" spreadType="roadCenter" id="SW_out" /></edges>