<?xml version="1.0" encoding="UTF-8"?>
<!-- Calibrated demand for sumotwin, built from the GDOT portal's turning movement count report for 0508 (2026). Generated by sumodemand/build_demand.py; do not hand-edit, regenerate instead. -->
<routes xmlns:xsi="http://www.w3.org/2001/XMLSchema-instance" xsi:noNamespaceSchemaLocation="http://sumo.dlr.de/xsd/routes_file.xsd">
    <route id="nb_thru" edges="S_in N_out"/>
    <route id="nb_left" edges="S_in SW_out"/>
    <route id="sb_thru" edges="N_far N_near S_out"/>
    <route id="sb_left" edges="N_far N_near NE_out"/>
    <route id="eb_thru" edges="SW_in NE_out"/>
    <route id="eb_left" edges="SW_in N_out"/>
    <route id="wb_thru" edges="NE_in NE_in.15 NE_in.79 SW_out"/>
    <route id="wb_left" edges="NE_in NE_in.15 NE_in.79 S_out"/>
    <flow id="0508_nb_thru_0" route="nb_thru" begin="0" end="300" number="11"/>
    <flow id="0508_nb_left_0" route="nb_left" begin="0" end="300" number="4"/>
    <flow id="0508_sb_thru_0" route="sb_thru" begin="0" end="300" number="10"/>
    <flow id="0508_sb_left_0" route="sb_left" begin="0" end="300" number="7"/>
    <flow id="0508_eb_thru_0" route="eb_thru" begin="0" end="300" number="18"/>
    <flow id="0508_eb_left_0" route="eb_left" begin="0" end="300" number="7"/>
    <flow id="0508_wb_thru_0" route="wb_thru" begin="0" end="300" number="9"/>
    <flow id="0508_wb_left_0" route="wb_left" begin="0" end="300" number="3"/>
    <flow id="0508_nb_thru_300" route="nb_thru" begin="300" end="600" number="19"/>
    <flow id="0508_nb_left_300" route="nb_left" begin="300" end="600" number="8"/>
    <flow id="0508_sb_thru_300" route="sb_thru" begin="300" end="600" number="14"/>
    <flow id="0508_sb_left_300" route="sb_left" begin="300" end="600" number="7"/>
    <flow id="0508_eb_thru_300" route="eb_thru" begin="300" end="600" number="39"/>
    <flow id="0508_eb_left_300" route="eb_left" begin="300" end="600" number="12"/>
    <flow id="0508_wb_thru_300" route="wb_thru" begin="300" end="600" number="12"/>
    <flow id="0508_wb_left_300" route="wb_left" begin="300" end="600" number="3"/>
    <flow id="0508_nb_thru_600" route="nb_thru" begin="600" end="900" number="16"/>
    <flow id="0508_nb_left_600" route="nb_left" begin="600" end="900" number="6"/>
    <flow id="0508_sb_thru_600" route="sb_thru" begin="600" end="900" number="14"/>
    <flow id="0508_sb_left_600" route="sb_left" begin="600" end="900" number="6"/>
    <flow id="0508_eb_thru_600" route="eb_thru" begin="600" end="900" number="15"/>
    <flow id="0508_eb_left_600" route="eb_left" begin="600" end="900" number="6"/>
    <flow id="0508_wb_thru_600" route="wb_thru" begin="600" end="900" number="15"/>
    <flow id="0508_wb_left_600" route="wb_left" begin="600" end="900" number="5"/>
    <flow id="0508_nb_thru_900" route="nb_thru" begin="900" end="1200" number="12"/>
    <flow id="0508_nb_left_900" route="nb_left" begin="900" end="1200" number="5"/>
    <flow id="0508_sb_thru_900" route="sb_thru" begin="900" end="1200" number="12"/>
    <flow id="0508_sb_left_900" route="sb_left" begin="900" end="1200" number="6"/>
    <flow id="0508_eb_thru_900" route="eb_thru" begin="900" end="1200" number="26"/>
    <flow id="0508_eb_left_900" route="eb_left" begin="900" end="1200" number="4"/>
    <flow id="0508_wb_thru_900" route="wb_thru" begin="900" end="1200" number="10"/>
    <flow id="0508_wb_left_900" route="wb_left" begin="900" end="1200" number="5"/>
    <flow id="0508_nb_thru_1200" route="nb_thru" begin="1200" end="1500" number="9"/>
    <flow id="0508_nb_left_1200" route="nb_left" begin="1200" end="1500" number="2"/>
    <flow id="0508_sb_thru_1200" route="sb_thru" begin="1200" end="1500" number="8"/>
    <flow id="0508_sb_left_1200" route="sb_left" begin="1200" end="1500" number="6"/>
    <flow id="0508_eb_thru_1200" route="eb_thru" begin="1200" end="1500" number="27"/>
    <flow id="0508_eb_left_1200" route="eb_left" begin="1200" end="1500" number="7"/>
    <flow id="0508_wb_thru_1200" route="wb_thru" begin="1200" end="1500" number="12"/>
    <flow id="0508_wb_left_1200" route="wb_left" begin="1200" end="1500" number="2"/>
    <flow id="0508_nb_thru_1500" route="nb_thru" begin="1500" end="1800" number="15"/>
    <flow id="0508_nb_left_1500" route="nb_left" begin="1500" end="1800" number="5"/>
    <flow id="0508_sb_thru_1500" route="sb_thru" begin="1500" end="1800" number="11"/>
    <flow id="0508_sb_left_1500" route="sb_left" begin="1500" end="1800" number="6"/>
    <flow id="0508_eb_thru_1500" route="eb_thru" begin="1500" end="1800" number="17"/>
    <flow id="0508_eb_left_1500" route="eb_left" begin="1500" end="1800" number="7"/>
    <flow id="0508_wb_thru_1500" route="wb_thru" begin="1500" end="1800" number="10"/>
    <flow id="0508_wb_left_1500" route="wb_left" begin="1500" end="1800" number="3"/>
    <flow id="0508_nb_thru_1800" route="nb_thru" begin="1800" end="2100" number="13"/>
    <flow id="0508_nb_left_1800" route="nb_left" begin="1800" end="2100" number="6"/>
    <flow id="0508_sb_thru_1800" route="sb_thru" begin="1800" end="2100" number="17"/>
    <flow id="0508_sb_left_1800" route="sb_left" begin="1800" end="2100" number="5"/>
    <flow id="0508_eb_thru_1800" route="eb_thru" begin="1800" end="2100" number="18"/>
    <flow id="0508_eb_left_1800" route="eb_left" begin="1800" end="2100" number="3"/>
    <flow id="0508_wb_thru_1800" route="wb_thru" begin="1800" end="2100" number="13"/>
    <flow id="0508_wb_left_1800" route="wb_left" begin="1800" end="2100" number="2"/>
    <flow id="0508_nb_thru_2100" route="nb_thru" begin="2100" end="2400" number="12"/>
    <flow id="0508_nb_left_2100" route="nb_left" begin="2100" end="2400" number="5"/>
    <flow id="0508_sb_thru_2100" route="sb_thru" begin="2100" end="2400" number="15"/>
    <flow id="0508_sb_left_2100" route="sb_left" begin="2100" end="2400" number="8"/>
    <flow id="0508_eb_thru_2100" route="eb_thru" begin="2100" end="2400" number="16"/>
    <flow id="0508_eb_left_2100" route="eb_left" begin="2100" end="2400" number="4"/>
    <flow id="0508_wb_thru_2100" route="wb_thru" begin="2100" end="2400" number="13"/>
    <flow id="0508_wb_left_2100" route="wb_left" begin="2100" end="2400" number="4"/>
    <flow id="0508_nb_thru_2400" route="nb_thru" begin="2400" end="2700" number="8"/>
    <flow id="0508_nb_left_2400" route="nb_left" begin="2400" end="2700" number="6"/>
    <flow id="0508_sb_thru_2400" route="sb_thru" begin="2400" end="2700" number="5"/>
    <flow id="0508_sb_left_2400" route="sb_left" begin="2400" end="2700" number="9"/>
    <flow id="0508_eb_thru_2400" route="eb_thru" begin="2400" end="2700" number="28"/>
    <flow id="0508_eb_left_2400" route="eb_left" begin="2400" end="2700" number="6"/>
    <flow id="0508_wb_thru_2400" route="wb_thru" begin="2400" end="2700" number="12"/>
    <flow id="0508_wb_left_2400" route="wb_left" begin="2400" end="2700" number="2"/>
    <flow id="0508_nb_thru_2700" route="nb_thru" begin="2700" end="3000" number="14"/>
    <flow id="0508_nb_left_2700" route="nb_left" begin="2700" end="3000" number="5"/>
    <flow id="0508_sb_thru_2700" route="sb_thru" begin="2700" end="3000" number="6"/>
    <flow id="0508_sb_left_2700" route="sb_left" begin="2700" end="3000" number="5"/>
    <flow id="0508_eb_thru_2700" route="eb_thru" begin="2700" end="3000" number="20"/>
    <flow id="0508_eb_left_2700" route="eb_left" begin="2700" end="3000" number="5"/>
    <flow id="0508_wb_thru_2700" route="wb_thru" begin="2700" end="3000" number="2"/>
    <flow id="0508_wb_left_2700" route="wb_left" begin="2700" end="3000" number="3"/>
    <flow id="0508_nb_thru_3000" route="nb_thru" begin="3000" end="3300" number="22"/>
    <flow id="0508_nb_left_3000" route="nb_left" begin="3000" end="3300" number="2"/>
    <flow id="0508_sb_thru_3000" route="sb_thru" begin="3000" end="3300" number="7"/>
    <flow id="0508_sb_left_3000" route="sb_left" begin="3000" end="3300" number="4"/>
    <flow id="0508_eb_thru_3000" route="eb_thru" begin="3000" end="3300" number="22"/>
    <flow id="0508_eb_left_3000" route="eb_left" begin="3000" end="3300" number="4"/>
    <flow id="0508_wb_thru_3000" route="wb_thru" begin="3000" end="3300" number="12"/>
    <flow id="0508_wb_left_3000" route="wb_left" begin="3000" end="3300" number="3"/>
    <flow id="0508_nb_thru_3300" route="nb_thru" begin="3300" end="3600" number="17"/>
    <flow id="0508_nb_left_3300" route="nb_left" begin="3300" end="3600" number="3"/>
    <flow id="0508_sb_thru_3300" route="sb_thru" begin="3300" end="3600" number="5"/>
    <flow id="0508_sb_left_3300" route="sb_left" begin="3300" end="3600" number="1"/>
    <flow id="0508_eb_thru_3300" route="eb_thru" begin="3300" end="3600" number="13"/>
    <flow id="0508_eb_left_3300" route="eb_left" begin="3300" end="3600" number="4"/>
    <flow id="0508_wb_thru_3300" route="wb_thru" begin="3300" end="3600" number="6"/>
    <flow id="0508_wb_left_3300" route="wb_left" begin="3300" end="3600" number="4"/>
    <flow id="0508_nb_thru_3600" route="nb_thru" begin="3600" end="3900" number="4"/>
    <flow id="0508_nb_left_3600" route="nb_left" begin="3600" end="3900" number="3"/>
    <flow id="0508_sb_thru_3600" route="sb_thru" begin="3600" end="3900" number="4"/>
    <flow id="0508_sb_left_3600" route="sb_left" begin="3600" end="3900" number="2"/>
    <flow id="0508_eb_thru_3600" route="eb_thru" begin="3600" end="3900" number="12"/>
    <flow id="0508_eb_left_3600" route="eb_left" begin="3600" end="3900" number="4"/>
    <flow id="0508_wb_thru_3600" route="wb_thru" begin="3600" end="3900" number="6"/>
    <flow id="0508_wb_left_3600" route="wb_left" begin="3600" end="3900" number="5"/>
    <flow id="0508_nb_thru_3900" route="nb_thru" begin="3900" end="4200" number="6"/>
    <flow id="0508_nb_left_3900" route="nb_left" begin="3900" end="4200" number="5"/>
    <flow id="0508_sb_thru_3900" route="sb_thru" begin="3900" end="4200" number="6"/>
    <flow id="0508_sb_left_3900" route="sb_left" begin="3900" end="4200" number="7"/>
    <flow id="0508_eb_thru_3900" route="eb_thru" begin="3900" end="4200" number="20"/>
    <flow id="0508_eb_left_3900" route="eb_left" begin="3900" end="4200" number="3"/>
    <flow id="0508_wb_thru_3900" route="wb_thru" begin="3900" end="4200" number="5"/>
    <flow id="0508_wb_left_3900" route="wb_left" begin="3900" end="4200" number="5"/>
    <flow id="0508_nb_thru_4200" route="nb_thru" begin="4200" end="4500" number="11"/>
    <flow id="0508_nb_left_4200" route="nb_left" begin="4200" end="4500" number="1"/>
    <flow id="0508_sb_thru_4200" route="sb_thru" begin="4200" end="4500" number="5"/>
    <flow id="0508_sb_left_4200" route="sb_left" begin="4200" end="4500" number="6"/>
    <flow id="0508_eb_thru_4200" route="eb_thru" begin="4200" end="4500" number="17"/>
    <flow id="0508_eb_left_4200" route="eb_left" begin="4200" end="4500" number="3"/>
    <flow id="0508_wb_thru_4200" route="wb_thru" begin="4200" end="4500" number="6"/>
    <flow id="0508_wb_left_4200" route="wb_left" begin="4200" end="4500" number="5"/>
    <flow id="0508_nb_thru_4500" route="nb_thru" begin="4500" end="4800" number="6"/>
    <flow id="0508_nb_left_4500" route="nb_left" begin="4500" end="4800" number="6"/>
    <flow id="0508_sb_thru_4500" route="sb_thru" begin="4500" end="4800" number="11"/>
    <flow id="0508_sb_left_4500" route="sb_left" begin="4500" end="4800" number="8"/>
    <flow id="0508_eb_thru_4500" route="eb_thru" begin="4500" end="4800" number="22"/>
    <flow id="0508_eb_left_4500" route="eb_left" begin="4500" end="4800" number="11"/>
    <flow id="0508_wb_thru_4500" route="wb_thru" begin="4500" end="4800" number="11"/>
    <flow id="0508_wb_left_4500" route="wb_left" begin="4500" end="4800" number="6"/>
    <flow id="0508_nb_thru_4800" route="nb_thru" begin="4800" end="5100" number="4"/>
    <flow id="0508_nb_left_4800" route="nb_left" begin="4800" end="5100" number="3"/>
    <flow id="0508_sb_thru_4800" route="sb_thru" begin="4800" end="5100" number="3"/>
    <flow id="0508_sb_left_4800" route="sb_left" begin="4800" end="5100" number="4"/>
    <flow id="0508_eb_thru_4800" route="eb_thru" begin="4800" end="5100" number="15"/>
    <flow id="0508_eb_left_4800" route="eb_left" begin="4800" end="5100" number="3"/>
    <flow id="0508_wb_thru_4800" route="wb_thru" begin="4800" end="5100" number="9"/>
    <flow id="0508_wb_left_4800" route="wb_left" begin="4800" end="5100" number="3"/>
    <flow id="0508_nb_thru_5100" route="nb_thru" begin="5100" end="5400" number="4"/>
    <flow id="0508_nb_left_5100" route="nb_left" begin="5100" end="5400" number="4"/>
    <flow id="0508_sb_thru_5100" route="sb_thru" begin="5100" end="5400" number="8"/>
    <flow id="0508_sb_left_5100" route="sb_left" begin="5100" end="5400" number="8"/>
    <flow id="0508_eb_thru_5100" route="eb_thru" begin="5100" end="5400" number="11"/>
    <flow id="0508_eb_left_5100" route="eb_left" begin="5100" end="5400" number="2"/>
    <flow id="0508_wb_thru_5100" route="wb_thru" begin="5100" end="5400" number="2"/>
    <flow id="0508_wb_left_5100" route="wb_left" begin="5100" end="5400" number="2"/>
    <flow id="0508_nb_thru_5400" route="nb_thru" begin="5400" end="5700" number="6"/>
    <flow id="0508_nb_left_5400" route="nb_left" begin="5400" end="5700" number="2"/>
    <flow id="0508_sb_thru_5400" route="sb_thru" begin="5400" end="5700" number="8"/>
    <flow id="0508_sb_left_5400" route="sb_left" begin="5400" end="5700" number="5"/>
    <flow id="0508_eb_thru_5400" route="eb_thru" begin="5400" end="5700" number="13"/>
    <flow id="0508_eb_left_5400" route="eb_left" begin="5400" end="5700" number="3"/>
    <flow id="0508_wb_thru_5400" route="wb_thru" begin="5400" end="5700" number="8"/>
    <flow id="0508_wb_left_5400" route="wb_left" begin="5400" end="5700" number="2"/>
    <flow id="0508_nb_thru_5700" route="nb_thru" begin="5700" end="6000" number="8"/>
    <flow id="0508_nb_left_5700" route="nb_left" begin="5700" end="6000" number="3"/>
    <flow id="0508_sb_thru_5700" route="sb_thru" begin="5700" end="6000" number="7"/>
    <flow id="0508_sb_left_5700" route="sb_left" begin="5700" end="6000" number="5"/>
    <flow id="0508_eb_thru_5700" route="eb_thru" begin="5700" end="6000" number="10"/>
    <flow id="0508_eb_left_5700" route="eb_left" begin="5700" end="6000" number="3"/>
    <flow id="0508_wb_thru_5700" route="wb_thru" begin="5700" end="6000" number="9"/>
    <flow id="0508_wb_left_5700" route="wb_left" begin="5700" end="6000" number="1"/>
    <flow id="0508_nb_thru_6000" route="nb_thru" begin="6000" end="6300" number="7"/>
    <flow id="0508_nb_left_6000" route="nb_left" begin="6000" end="6300" number="2"/>
    <flow id="0508_sb_thru_6000" route="sb_thru" begin="6000" end="6300" number="6"/>
    <flow id="0508_sb_left_6000" route="sb_left" begin="6000" end="6300" number="4"/>
    <flow id="0508_eb_thru_6000" route="eb_thru" begin="6000" end="6300" number="12"/>
    <flow id="0508_eb_left_6000" route="eb_left" begin="6000" end="6300" number="4"/>
    <flow id="0508_wb_thru_6000" route="wb_thru" begin="6000" end="6300" number="8"/>
    <flow id="0508_wb_left_6000" route="wb_left" begin="6000" end="6300" number="2"/>
    <flow id="0508_nb_thru_6300" route="nb_thru" begin="6300" end="6600" number="10"/>
    <flow id="0508_nb_left_6300" route="nb_left" begin="6300" end="6600" number="2"/>
    <flow id="0508_sb_thru_6300" route="sb_thru" begin="6300" end="6600" number="7"/>
    <flow id="0508_sb_left_6300" route="sb_left" begin="6300" end="6600" number="3"/>
    <flow id="0508_eb_thru_6300" route="eb_thru" begin="6300" end="6600" number="14"/>
    <flow id="0508_eb_left_6300" route="eb_left" begin="6300" end="6600" number="2"/>
    <flow id="0508_wb_thru_6300" route="wb_thru" begin="6300" end="6600" number="7"/>
    <flow id="0508_wb_left_6300" route="wb_left" begin="6300" end="6600" number="2"/>
    <flow id="0508_nb_thru_6600" route="nb_thru" begin="6600" end="6900" number="10"/>
    <flow id="0508_nb_left_6600" route="nb_left" begin="6600" end="6900" number="2"/>
    <flow id="0508_sb_thru_6600" route="sb_thru" begin="6600" end="6900" number="6"/>
    <flow id="0508_sb_left_6600" route="sb_left" begin="6600" end="6900" number="4"/>
    <flow id="0508_eb_thru_6600" route="eb_thru" begin="6600" end="6900" number="14"/>
    <flow id="0508_eb_left_6600" route="eb_left" begin="6600" end="6900" number="3"/>
    <flow id="0508_wb_thru_6600" route="wb_thru" begin="6600" end="6900" number="2"/>
    <flow id="0508_wb_left_6600" route="wb_left" begin="6600" end="6900" number="4"/>
    <flow id="0508_nb_thru_6900" route="nb_thru" begin="6900" end="7200" number="10"/>
    <flow id="0508_nb_left_6900" route="nb_left" begin="6900" end="7200" number="5"/>
    <flow id="0508_sb_thru_6900" route="sb_thru" begin="6900" end="7200" number="3"/>
    <flow id="0508_sb_left_6900" route="sb_left" begin="6900" end="7200" number="3"/>
    <flow id="0508_eb_thru_6900" route="eb_thru" begin="6900" end="7200" number="11"/>
    <flow id="0508_eb_left_6900" route="eb_left" begin="6900" end="7200" number="2"/>
    <flow id="0508_wb_thru_6900" route="wb_thru" begin="6900" end="7200" number="9"/>
    <flow id="0508_wb_left_6900" route="wb_left" begin="6900" end="7200" number="5"/>
    <flow id="0508_nb_thru_7200" route="nb_thru" begin="7200" end="7500" number="8"/>
    <flow id="0508_nb_left_7200" route="nb_left" begin="7200" end="7500" number="3"/>
    <flow id="0508_sb_thru_7200" route="sb_thru" begin="7200" end="7500" number="9"/>
    <flow id="0508_sb_left_7200" route="sb_left" begin="7200" end="7500" number="4"/>
    <flow id="0508_eb_thru_7200" route="eb_thru" begin="7200" end="7500" number="21"/>
    <flow id="0508_eb_left_7200" route="eb_left" begin="7200" end="7500" number="1"/>
    <flow id="0508_wb_thru_7200" route="wb_thru" begin="7200" end="7500" number="4"/>
    <flow id="0508_wb_left_7200" route="wb_left" begin="7200" end="7500" number="3"/>
    <flow id="0508_nb_thru_7500" route="nb_thru" begin="7500" end="7800" number="7"/>
    <flow id="0508_nb_left_7500" route="nb_left" begin="7500" end="7800" number="5"/>
    <flow id="0508_sb_thru_7500" route="sb_thru" begin="7500" end="7800" number="8"/>
    <flow id="0508_eb_thru_7500" route="eb_thru" begin="7500" end="7800" number="10"/>
    <flow id="0508_eb_left_7500" route="eb_left" begin="7500" end="7800" number="5"/>
    <flow id="0508_wb_thru_7500" route="wb_thru" begin="7500" end="7800" number="6"/>
    <flow id="0508_wb_left_7500" route="wb_left" begin="7500" end="7800" number="6"/>
    <flow id="0508_nb_thru_7800" route="nb_thru" begin="7800" end="8100" number="13"/>
    <flow id="0508_nb_left_7800" route="nb_left" begin="7800" end="8100" number="2"/>
    <flow id="0508_sb_thru_7800" route="sb_thru" begin="7800" end="8100" number="7"/>
    <flow id="0508_sb_left_7800" route="sb_left" begin="7800" end="8100" number="3"/>
    <flow id="0508_eb_thru_7800" route="eb_thru" begin="7800" end="8100" number="8"/>
    <flow id="0508_eb_left_7800" route="eb_left" begin="7800" end="8100" number="2"/>
    <flow id="0508_wb_thru_7800" route="wb_thru" begin="7800" end="8100" number="12"/>
    <flow id="0508_wb_left_7800" route="wb_left" begin="7800" end="8100" number="3"/>
    <flow id="0508_nb_thru_8100" route="nb_thru" begin="8100" end="8400" number="4"/>
    <flow id="0508_nb_left_8100" route="nb_left" begin="8100" end="8400" number="4"/>
    <flow id="0508_sb_thru_8100" route="sb_thru" begin="8100" end="8400" number="5"/>
    <flow id="0508_sb_left_8100" route="sb_left" begin="8100" end="8400" number="1"/>
    <flow id="0508_eb_thru_8100" route="eb_thru" begin="8100" end="8400" number="12"/>
    <flow id="0508_eb_left_8100" route="eb_left" begin="8100" end="8400" number="1"/>
    <flow id="0508_wb_thru_8100" route="wb_thru" begin="8100" end="8400" number="7"/>
    <flow id="0508_wb_left_8100" route="wb_left" begin="8100" end="8400" number="5"/>
    <flow id="0508_nb_thru_8400" route="nb_thru" begin="8400" end="8700" number="6"/>
    <flow id="0508_nb_left_8400" route="nb_left" begin="8400" end="8700" number="2"/>
    <flow id="0508_sb_thru_8400" route="sb_thru" begin="8400" end="8700" number="4"/>
    <flow id="0508_sb_left_8400" route="sb_left" begin="8400" end="8700" number="2"/>
    <flow id="0508_eb_thru_8400" route="eb_thru" begin="8400" end="8700" number="15"/>
    <flow id="0508_eb_left_8400" route="eb_left" begin="8400" end="8700" number="4"/>
    <flow id="0508_wb_thru_8400" route="wb_thru" begin="8400" end="8700" number="3"/>
    <flow id="0508_wb_left_8400" route="wb_left" begin="8400" end="8700" number="2"/>
    <flow id="0508_nb_thru_8700" route="nb_thru" begin="8700" end="9000" number="7"/>
    <flow id="0508_nb_left_8700" route="nb_left" begin="8700" end="9000" number="1"/>
    <flow id="0508_sb_thru_8700" route="sb_thru" begin="8700" end="9000" number="8"/>
    <flow id="0508_sb_left_8700" route="sb_left" begin="8700" end="9000" number="2"/>
    <flow id="0508_eb_thru_8700" route="eb_thru" begin="8700" end="9000" number="8"/>
    <flow id="0508_eb_left_8700" route="eb_left" begin="8700" end="9000" number="4"/>
    <flow id="0508_wb_thru_8700" route="wb_thru" begin="8700" end="9000" number="3"/>
    <flow id="0508_wb_left_8700" route="wb_left" begin="8700" end="9000" number="1"/>
    <flow id="0508_nb_thru_9000" route="nb_thru" begin="9000" end="9300" number="10"/>
    <flow id="0508_nb_left_9000" route="nb_left" begin="9000" end="9300" number="4"/>
    <flow id="0508_sb_thru_9000" route="sb_thru" begin="9000" end="9300" number="2"/>
    <flow id="0508_sb_left_9000" route="sb_left" begin="9000" end="9300" number="4"/>
    <flow id="0508_eb_thru_9000" route="eb_thru" begin="9000" end="9300" number="10"/>
    <flow id="0508_eb_left_9000" route="eb_left" begin="9000" end="9300" number="2"/>
    <flow id="0508_wb_thru_9000" route="wb_thru" begin="9000" end="9300" number="7"/>
    <flow id="0508_wb_left_9000" route="wb_left" begin="9000" end="9300" number="2"/>
    <flow id="0508_nb_thru_9300" route="nb_thru" begin="9300" end="9600" number="12"/>
    <flow id="0508_sb_thru_9300" route="sb_thru" begin="9300" end="9600" number="7"/>
    <flow id="0508_sb_left_9300" route="sb_left" begin="9300" end="9600" number="1"/>
    <flow id="0508_eb_thru_9300" route="eb_thru" begin="9300" end="9600" number="13"/>
    <flow id="0508_eb_left_9300" route="eb_left" begin="9300" end="9600" number="4"/>
    <flow id="0508_wb_thru_9300" route="wb_thru" begin="9300" end="9600" number="2"/>
    <flow id="0508_wb_left_9300" route="wb_left" begin="9300" end="9600" number="3"/>
    <flow id="0508_nb_thru_9600" route="nb_thru" begin="9600" end="9900" number="6"/>
    <flow id="0508_nb_left_9600" route="nb_left" begin="9600" end="9900" number="5"/>
    <flow id="0508_sb_thru_9600" route="sb_thru" begin="9600" end="9900" number="7"/>
    <flow id="0508_sb_left_9600" route="sb_left" begin="9600" end="9900" number="4"/>
    <flow id="0508_eb_thru_9600" route="eb_thru" begin="9600" end="9900" number="12"/>
    <flow id="0508_eb_left_9600" route="eb_left" begin="9600" end="9900" number="1"/>
    <flow id="0508_wb_thru_9600" route="wb_thru" begin="9600" end="9900" number="5"/>
    <flow id="0508_wb_left_9600" route="wb_left" begin="9600" end="9900" number="4"/>
    <flow id="0508_nb_thru_9900" route="nb_thru" begin="9900" end="10200" number="3"/>
    <flow id="0508_nb_left_9900" route="nb_left" begin="9900" end="10200" number="3"/>
    <flow id="0508_sb_thru_9900" route="sb_thru" begin="9900" end="10200" number="3"/>
    <flow id="0508_sb_left_9900" route="sb_left" begin="9900" end="10200" number="1"/>
    <flow id="0508_eb_thru_9900" route="eb_thru" begin="9900" end="10200" number="7"/>
    <flow id="0508_eb_left_9900" route="eb_left" begin="9900" end="10200" number="1"/>
    <flow id="0508_wb_thru_9900" route="wb_thru" begin="9900" end="10200" number="5"/>
    <flow id="0508_wb_left_9900" route="wb_left" begin="9900" end="10200" number="6"/>
    <flow id="0508_nb_thru_10200" route="nb_thru" begin="10200" end="10500" number="8"/>
    <flow id="0508_nb_left_10200" route="nb_left" begin="10200" end="10500" number="3"/>
    <flow id="0508_sb_thru_10200" route="sb_thru" begin="10200" end="10500" number="2"/>
    <flow id="0508_sb_left_10200" route="sb_left" begin="10200" end="10500" number="3"/>
    <flow id="0508_eb_thru_10200" route="eb_thru" begin="10200" end="10500" number="6"/>
    <flow id="0508_wb_thru_10200" route="wb_thru" begin="10200" end="10500" number="8"/>
    <flow id="0508_wb_left_10200" route="wb_left" begin="10200" end="10500" number="2"/>
    <flow id="0508_nb_thru_10500" route="nb_thru" begin="10500" end="10800" number="9"/>
    <flow id="0508_nb_left_10500" route="nb_left" begin="10500" end="10800" number="6"/>
    <flow id="0508_sb_thru_10500" route="sb_thru" begin="10500" end="10800" number="6"/>
    <flow id="0508_sb_left_10500" route="sb_left" begin="10500" end="10800" number="2"/>
    <flow id="0508_eb_thru_10500" route="eb_thru" begin="10500" end="10800" number="11"/>
    <flow id="0508_eb_left_10500" route="eb_left" begin="10500" end="10800" number="2"/>
    <flow id="0508_wb_thru_10500" route="wb_thru" begin="10500" end="10800" number="8"/>
    <flow id="0508_wb_left_10500" route="wb_left" begin="10500" end="10800" number="3"/>
    <flow id="0508_nb_thru_10800" route="nb_thru" begin="10800" end="11100" number="16"/>
    <flow id="0508_nb_left_10800" route="nb_left" begin="10800" end="11100" number="5"/>
    <flow id="0508_sb_thru_10800" route="sb_thru" begin="10800" end="11100" number="4"/>
    <flow id="0508_sb_left_10800" route="sb_left" begin="10800" end="11100" number="3"/>
    <flow id="0508_eb_thru_10800" route="eb_thru" begin="10800" end="11100" number="14"/>
    <flow id="0508_eb_left_10800" route="eb_left" begin="10800" end="11100" number="3"/>
    <flow id="0508_wb_thru_10800" route="wb_thru" begin="10800" end="11100" number="9"/>
    <flow id="0508_wb_left_10800" route="wb_left" begin="10800" end="11100" number="3"/>
    <flow id="0508_nb_thru_11100" route="nb_thru" begin="11100" end="11400" number="7"/>
    <flow id="0508_nb_left_11100" route="nb_left" begin="11100" end="11400" number="4"/>
    <flow id="0508_sb_thru_11100" route="sb_thru" begin="11100" end="11400" number="9"/>
    <flow id="0508_sb_left_11100" route="sb_left" begin="11100" end="11400" number="2"/>
    <flow id="0508_eb_thru_11100" route="eb_thru" begin="11100" end="11400" number="8"/>
    <flow id="0508_eb_left_11100" route="eb_left" begin="11100" end="11400" number="1"/>
    <flow id="0508_wb_thru_11100" route="wb_thru" begin="11100" end="11400" number="7"/>
    <flow id="0508_wb_left_11100" route="wb_left" begin="11100" end="11400" number="5"/>
    <flow id="0508_nb_thru_11400" route="nb_thru" begin="11400" end="11700" number="5"/>
    <flow id="0508_nb_left_11400" route="nb_left" begin="11400" end="11700" number="4"/>
    <flow id="0508_sb_thru_11400" route="sb_thru" begin="11400" end="11700" number="7"/>
    <flow id="0508_sb_left_11400" route="sb_left" begin="11400" end="11700" number="2"/>
    <flow id="0508_eb_thru_11400" route="eb_thru" begin="11400" end="11700" number="6"/>
    <flow id="0508_eb_left_11400" route="eb_left" begin="11400" end="11700" number="1"/>
    <flow id="0508_wb_thru_11400" route="wb_thru" begin="11400" end="11700" number="11"/>
    <flow id="0508_wb_left_11400" route="wb_left" begin="11400" end="11700" number="3"/>
    <flow id="0508_nb_thru_11700" route="nb_thru" begin="11700" end="12000" number="7"/>
    <flow id="0508_nb_left_11700" route="nb_left" begin="11700" end="12000" number="4"/>
    <flow id="0508_sb_thru_11700" route="sb_thru" begin="11700" end="12000" number="3"/>
    <flow id="0508_eb_thru_11700" route="eb_thru" begin="11700" end="12000" number="8"/>
    <flow id="0508_eb_left_11700" route="eb_left" begin="11700" end="12000" number="1"/>
    <flow id="0508_wb_thru_11700" route="wb_thru" begin="11700" end="12000" number="5"/>
    <flow id="0508_wb_left_11700" route="wb_left" begin="11700" end="12000" number="4"/>
    <flow id="0508_nb_thru_12000" route="nb_thru" begin="12000" end="12300" number="4"/>
    <flow id="0508_nb_left_12000" route="nb_left" begin="12000" end="12300" number="2"/>
    <flow id="0508_sb_thru_12000" route="sb_thru" begin="12000" end="12300" number="6"/>
    <flow id="0508_sb_left_12000" route="sb_left" begin="12000" end="12300" number="4"/>
    <flow id="0508_eb_thru_12000" route="eb_thru" begin="12000" end="12300" number="7"/>
    <flow id="0508_eb_left_12000" route="eb_left" begin="12000" end="12300" number="3"/>
    <flow id="0508_wb_thru_12000" route="wb_thru" begin="12000" end="12300" number="4"/>
    <flow id="0508_wb_left_12000" route="wb_left" begin="12000" end="12300" number="2"/>
    <flow id="0508_nb_thru_12300" route="nb_thru" begin="12300" end="12600" number="9"/>
    <flow id="0508_sb_thru_12300" route="sb_thru" begin="12300" end="12600" number="2"/>
    <flow id="0508_sb_left_12300" route="sb_left" begin="12300" end="12600" number="4"/>
    <flow id="0508_eb_thru_12300" route="eb_thru" begin="12300" end="12600" number="13"/>
    <flow id="0508_eb_left_12300" route="eb_left" begin="12300" end="12600" number="5"/>
    <flow id="0508_wb_thru_12300" route="wb_thru" begin="12300" end="12600" number="2"/>
    <flow id="0508_nb_thru_12600" route="nb_thru" begin="12600" end="12900" number="8"/>
    <flow id="0508_nb_left_12600" route="nb_left" begin="12600" end="12900" number="3"/>
    <flow id="0508_sb_thru_12600" route="sb_thru" begin="12600" end="12900" number="7"/>
    <flow id="0508_sb_left_12600" route="sb_left" begin="12600" end="12900" number="5"/>
    <flow id="0508_eb_thru_12600" route="eb_thru" begin="12600" end="12900" number="6"/>
    <flow id="0508_wb_thru_12600" route="wb_thru" begin="12600" end="12900" number="3"/>
    <flow id="0508_nb_thru_12900" route="nb_thru" begin="12900" end="13200" number="6"/>